LIG_h.pdb
 OpenBabel08172101563D

 43 44  0  0  0  0  0  0  0  0999 V2000
    0.0000    0.0000    0.0000 C   0  0  0  0  0  0  0  0  0  0  0  0
   -0.4760    1.4370    0.0280 C   0  0  0  0  0  0  0  0  0  0  0  0
   -0.4110    2.1970   -1.0810 C   0  0  0  0  0  0  0  0  0  0  0  0
   -0.7500    3.4940   -1.0460 C   0  0  0  0  0  0  0  0  0  0  0  0
   -1.1740    4.0630    0.0980 C   0  0  0  0  0  0  0  0  0  0  0  0
   -1.2530    3.3000    1.2020 C   0  0  0  0  0  0  0  0  0  0  0  0
   -0.9110    2.0020    1.1660 C   0  0  0  0  0  0  0  0  0  0  0  0
   -0.9630    1.4030    2.0890 H   0  0  0  0  0  0  0  0  0  0  0  0
   -1.5800    3.7500    2.1530 H   0  0  0  0  0  0  0  0  0  0  0  0
   -1.5260    5.5280    0.1760 C   0  0  0  0  0  0  0  0  0  0  0  0
   -3.0140    5.7860    0.2690 C   0  0  0  0  0  0  0  0  0  0  0  0
   -3.5890    6.1910    1.4160 C   0  0  0  0  0  0  0  0  0  0  0  0
   -4.8900    6.5210    1.4530 C   0  0  0  0  0  0  0  0  0  0  0  0
   -5.6560    6.4560    0.3500 C   0  0  0  0  0  0  0  0  0  0  0  0
   -5.0930    5.9920   -0.7790 C   0  0  0  0  0  0  0  0  0  0  0  0
   -3.7930    5.6610   -0.8180 C   0  0  0  0  0  0  0  0  0  0  0  0
   -3.3450    5.3230   -1.7690 H   0  0  0  0  0  0  0  0  0  0  0  0
   -5.6940    5.9230   -1.7010 H   0  0  0  0  0  0  0  0  0  0  0  0
   -7.0910    6.9430    0.3780 C   0  0  0  0  0  0  0  0  0  0  0  0
   -7.1150    8.4770    0.2450 C   0  0  0  0  0  0  0  0  0  0  0  0
   -8.5140    9.0800    0.4130 C   0  0  0  0  0  0  0  0  0  0  0  0
   -8.4840   10.1920    0.3270 H   0  0  0  0  0  0  0  0  0  0  0  0
   -9.2240    8.6990   -0.3560 H   0  0  0  0  0  0  0  0  0  0  0  0
   -8.9260    8.8430    1.4200 H   0  0  0  0  0  0  0  0  0  0  0  0
   -6.4620    8.9320    1.0270 H   0  0  0  0  0  0  0  0  0  0  0  0
   -6.6900    8.7740   -0.7450 H   0  0  0  0  0  0  0  0  0  0  0  0
   -7.6800    6.4740   -0.4460 H   0  0  0  0  0  0  0  0  0  0  0  0
   -7.5850    6.6350    1.3300 H   0  0  0  0  0  0  0  0  0  0  0  0
   -5.3300    6.8960    2.3930 H   0  0  0  0  0  0  0  0  0  0  0  0
   -2.9850    6.3010    2.3330 H   0  0  0  0  0  0  0  0  0  0  0  0
   -0.9950    5.9840    1.0430 H   0  0  0  0  0  0  0  0  0  0  0  0
   -1.1250    6.0790   -0.7060 H   0  0  0  0  0  0  0  0  0  0  0  0
   -0.6550    4.0960   -1.9660 H   0  0  0  0  0  0  0  0  0  0  0  0
   -0.0440    1.7490   -2.0200 H   0  0  0  0  0  0  0  0  0  0  0  0
    1.5290    0.0230    0.1630 C   0  0  0  0  0  0  0  0  0  0  0  0
    2.2120   -1.3380   -0.0010 C   0  0  0  0  0  0  0  0  0  0  0  0
    3.3140   -1.2300    0.1330 H   0  0  0  0  0  0  0  0  0  0  0  0
    1.8470   -2.0810    0.7440 H   0  0  0  0  0  0  0  0  0  0  0  0
    2.0420   -1.7510   -1.0220 H   0  0  0  0  0  0  0  0  0  0  0  0
    1.7800    0.4510    1.1640 H   0  0  0  0  0  0  0  0  0  0  0  0
    1.9710    0.7050   -0.6020 H   0  0  0  0  0  0  0  0  0  0  0  0
   -0.4800   -0.5870    0.8180 H   0  0  0  0  0  0  0  0  0  0  0  0
   -0.2900   -0.4920   -0.9580 H   0  0  0  0  0  0  0  0  0  0  0  0
  1  2  1  0  0  0  0
  1 35  1  0  0  0  0
  1 42  1  0  0  0  0
  2  7  1  0  0  0  0
  3  4  1  0  0  0  0
  3  2  2  0  0  0  0
  4  5  2  0  0  0  0
  5 10  1  0  0  0  0
  5  6  1  0  0  0  0
  6  9  1  0  0  0  0
  7  6  2  0  0  0  0
  7  8  1  0  0  0  0
 10 11  1  0  0  0  0
 10 31  1  0  0  0  0
 11 12  1  0  0  0  0
 12 13  2  0  0  0  0
 12 30  1  0  0  0  0
 13 29  1  0  0  0  0
 14 19  1  0  0  0  0
 14 13  1  0  0  0  0
 15 14  2  0  0  0  0
 16 15  1  0  0  0  0
 16 11  2  0  0  0  0
 17 16  1  0  0  0  0
 18 15  1  0  0  0  0
 19 28  1  0  0  0  0
 20 19  1  0  0  0  0
 20 21  1  0  0  0  0
 20 25  1  0  0  0  0
 21 24  1  0  0  0  0
 22 21  1  0  0  0  0
 23 21  1  0  0  0  0
 26 20  1  0  0  0  0
 27 19  1  0  0  0  0
 32 10  1  0  0  0  0
 33  4  1  0  0  0  0
 34  3  1  0  0  0  0
 35 40  1  0  0  0  0
 36 37  1  0  0  0  0
 36 35  1  0  0  0  0
 36 38  1  0  0  0  0
 39 36  1  0  0  0  0
 41 35  1  0  0  0  0
 43  1  1  0  0  0  0
M  END
