LIG_h.pdb
 OpenBabel08172101563D

 58 60  0  0  0  0  0  0  0  0999 V2000
    0.0000    0.0000    0.0000 C   0  0  0  0  0  0  0  0  0  0  0  0
    0.8330    1.2120   -0.3730 C   0  0  0  0  0  0  0  0  0  0  0  0
    2.1580    1.1910   -0.6090 C   0  0  0  0  0  0  0  0  0  0  0  0
    2.8830    2.3100   -0.8280 C   0  0  0  0  0  0  0  0  0  0  0  0
    2.2290    3.4960   -0.8920 C   0  0  0  0  0  0  0  0  0  0  0  0
    0.9060    3.5400   -0.6470 C   0  0  0  0  0  0  0  0  0  0  0  0
    0.2280    2.4080   -0.3930 C   0  0  0  0  0  0  0  0  0  0  0  0
   -0.8510    2.4610   -0.1660 H   0  0  0  0  0  0  0  0  0  0  0  0
    0.2490    4.7110   -0.5870 C   0  0  0  0  0  0  0  0  0  0  0  0
    0.8680    5.8920   -0.7700 C   0  0  0  0  0  0  0  0  0  0  0  0
    2.1640    5.8460   -1.1130 C   0  0  0  0  0  0  0  0  0  0  0  0
    2.8250    4.6720   -1.1700 C   0  0  0  0  0  0  0  0  0  0  0  0
    3.8960    4.7240   -1.4320 H   0  0  0  0  0  0  0  0  0  0  0  0
    2.7200    6.7760   -1.3170 H   0  0  0  0  0  0  0  0  0  0  0  0
    0.0880    7.1730   -0.5570 C   0  0  0  0  0  0  0  0  0  0  0  0
    0.8120    8.4980   -0.7060 C   0  0  0  0  0  0  0  0  0  0  0  0
    1.7150    8.8820    0.2150 C   0  0  0  0  0  0  0  0  0  0  0  0
    2.2790   10.0990    0.1740 C   0  0  0  0  0  0  0  0  0  0  0  0
    1.9790   10.9950   -0.7850 C   0  0  0  0  0  0  0  0  0  0  0  0
    1.1190   10.5830   -1.7380 C   0  0  0  0  0  0  0  0  0  0  0  0
    0.5480    9.3660   -1.7000 C   0  0  0  0  0  0  0  0  0  0  0  0
   -0.1890    9.1010   -2.4790 H   0  0  0  0  0  0  0  0  0  0  0  0
    0.8350   11.2710   -2.5540 H   0  0  0  0  0  0  0  0  0  0  0  0
    2.5430   12.4160   -0.7430 C   0  0  0  0  0  0  0  0  0  0  0  0
    4.0740   12.5370   -0.5810 C   0  0  0  0  0  0  0  0  0  0  0  0
    4.6090   13.9790   -0.4350 C   0  0  0  0  0  0  0  0  0  0  0  0
    5.7180   13.9850   -0.2960 H   0  0  0  0  0  0  0  0  0  0  0  0
    4.3960   14.6000   -1.3360 H   0  0  0  0  0  0  0  0  0  0  0  0
    4.1850   14.5090    0.4500 H   0  0  0  0  0  0  0  0  0  0  0  0
    4.4070   11.9710    0.3210 H   0  0  0  0  0  0  0  0  0  0  0  0
    4.5640   12.0660   -1.4670 H   0  0  0  0  0  0  0  0  0  0  0  0
    2.2280   12.9860   -1.6480 H   0  0  0  0  0  0  0  0  0  0  0  0
    2.0440   12.9250    0.1160 H   0  0  0  0  0  0  0  0  0  0  0  0
    2.9740   10.3660    0.9880 H   0  0  0  0  0  0  0  0  0  0  0  0
    1.9600    8.1990    1.0450 H   0  0  0  0  0  0  0  0  0  0  0  0
   -0.8640    7.1570   -1.1420 H   0  0  0  0  0  0  0  0  0  0  0  0
   -0.2390    7.1380    0.5120 H   0  0  0  0  0  0  0  0  0  0  0  0
   -0.8250    4.7330   -0.3360 H   0  0  0  0  0  0  0  0  0  0  0  0
    4.4140    2.2570   -0.8750 C   0  0  0  0  0  0  0  0  0  0  0  0
    5.0840    0.9790   -0.3240 C   0  0  0  0  0  0  0  0  0  0  0  0
    5.4420   -0.0340   -1.4280 C   0  0  0  0  0  0  0  0  0  0  0  0
    5.1220   -1.0740   -1.1720 H   0  0  0  0  0  0  0  0  0  0  0  0
    4.9680    0.2320   -2.4030 H   0  0  0  0  0  0  0  0  0  0  0  0
    6.5480   -0.0520   -1.5900 H   0  0  0  0  0  0  0  0  0  0  0  0
    6.0270    1.2560    0.2060 H   0  0  0  0  0  0  0  0  0  0  0  0
    4.4780    0.5160    0.4910 H   0  0  0  0  0  0  0  0  0  0  0  0
    4.8110    2.4960   -1.8910 H   0  0  0  0  0  0  0  0  0  0  0  0
    4.7720    3.0700   -0.1980 H   0  0  0  0  0  0  0  0  0  0  0  0
    2.6480    0.2110   -0.5680 H   0  0  0  0  0  0  0  0  0  0  0  0
    0.4170   -1.3800   -0.5230 C   0  0  0  0  0  0  0  0  0  0  0  0
   -0.6450   -2.4270   -0.1440 C   0  0  0  0  0  0  0  0  0  0  0  0
   -0.4300   -3.4180   -0.6090 H   0  0  0  0  0  0  0  0  0  0  0  0
   -0.6900   -2.5730    0.9600 H   0  0  0  0  0  0  0  0  0  0  0  0
   -1.6610   -2.1190   -0.4830 H   0  0  0  0  0  0  0  0  0  0  0  0
    0.5260   -1.3460   -1.6330 H   0  0  0  0  0  0  0  0  0  0  0  0
    1.3960   -1.6900   -0.0890 H   0  0  0  0  0  0  0  0  0  0  0  0
   -0.0350   -0.0490    1.1150 H   0  0  0  0  0  0  0  0  0  0  0  0
   -1.0490    0.1760   -0.3380 H   0  0  0  0  0  0  0  0  0  0  0  0
  1 57  1  0  0  0  0
  2  1  1  0  0  0  0
  3 49  1  0  0  0  0
  3  2  2  0  0  0  0
  4  3  1  0  0  0  0
  5  4  2  0  0  0  0
  5  6  1  0  0  0  0
  6  9  1  0  0  0  0
  6  7  2  0  0  0  0
  7  2  1  0  0  0  0
  7  8  1  0  0  0  0
  9 38  1  0  0  0  0
 10  9  2  0  0  0  0
 10 15  1  0  0  0  0
 11 10  1  0  0  0  0
 12 11  2  0  0  0  0
 12  5  1  0  0  0  0
 13 12  1  0  0  0  0
 14 11  1  0  0  0  0
 15 37  1  0  0  0  0
 16 15  1  0  0  0  0
 16 17  1  0  0  0  0
 17 35  1  0  0  0  0
 18 17  2  0  0  0  0
 18 34  1  0  0  0  0
 19 24  1  0  0  0  0
 19 18  1  0  0  0  0
 20 21  1  0  0  0  0
 20 19  2  0  0  0  0
 21 16  2  0  0  0  0
 22 21  1  0  0  0  0
 23 20  1  0  0  0  0
 24 25  1  0  0  0  0
 24 33  1  0  0  0  0
 25 26  1  0  0  0  0
 25 30  1  0  0  0  0
 26 27  1  0  0  0  0
 26 29  1  0  0  0  0
 28 26  1  0  0  0  0
 31 25  1  0  0  0  0
 32 24  1  0  0  0  0
 36 15  1  0  0  0  0
 39  4  1  0  0  0  0
 39 40  1  0  0  0  0
 39 48  1  0  0  0  0
 40 45  1  0  0  0  0
 40 46  1  0  0  0  0
 41 42  1  0  0  0  0
 41 40  1  0  0  0  0
 43 41  1  0  0  0  0
 44 41  1  0  0  0  0
 47 39  1  0  0  0  0
 50 51  1  0  0  0  0
 50 56  1  0  0  0  0
 50  1  1  0  0  0  0
 51 53  1  0  0  0  0
 52 51  1  0  0  0  0
 54 51  1  0  0  0  0
 55 50  1  0  0  0  0
 58  1  1  0  0  0  0
M  END
