LIG_h.pdb
 OpenBabel08172101563D

 30 30  0  0  0  0  0  0  0  0999 V2000
    0.0000    0.0000    0.0000 C   0  0  0  0  0  0  0  0  0  0  0  0
    1.5170   -0.0290    0.0000 C   0  0  0  0  0  0  0  0  0  0  0  0
    2.1420   -1.2200    0.0010 C   0  0  0  0  0  0  0  0  0  0  0  0
    3.4800   -1.2980    0.0010 C   0  0  0  0  0  0  0  0  0  0  0  0
    4.2190   -0.1780    0.0010 C   0  0  0  0  0  0  0  0  0  0  0  0
    3.6310    1.0310    0.0000 C   0  0  0  0  0  0  0  0  0  0  0  0
    2.2840    1.0770    0.0000 C   0  0  0  0  0  0  0  0  0  0  0  0
    1.8130    2.0710   -0.0000 H   0  0  0  0  0  0  0  0  0  0  0  0
    4.4070    2.3360    0.0000 C   0  0  0  0  0  0  0  0  0  0  0  0
    5.9410    2.2430    0.0010 C   0  0  0  0  0  0  0  0  0  0  0  0
    6.5920    3.6340    0.0000 C   0  0  0  0  0  0  0  0  0  0  0  0
    7.7040    3.5550    0.0010 H   0  0  0  0  0  0  0  0  0  0  0  0
    6.2950    4.2180   -0.9010 H   0  0  0  0  0  0  0  0  0  0  0  0
    6.2950    4.2180    0.9020 H   0  0  0  0  0  0  0  0  0  0  0  0
    6.2890    1.6890    0.9060 H   0  0  0  0  0  0  0  0  0  0  0  0
    6.2890    1.6890   -0.9040 H   0  0  0  0  0  0  0  0  0  0  0  0
    4.0920    2.9170   -0.8990 H   0  0  0  0  0  0  0  0  0  0  0  0
    4.0920    2.9170    0.8990 H   0  0  0  0  0  0  0  0  0  0  0  0
    5.3150   -0.2830    0.0010 H   0  0  0  0  0  0  0  0  0  0  0  0
    3.9740   -2.2850    0.0010 H   0  0  0  0  0  0  0  0  0  0  0  0
    1.5490   -2.1510    0.0010 H   0  0  0  0  0  0  0  0  0  0  0  0
   -0.6800    1.3780   -0.0080 C   0  0  0  0  0  0  0  0  0  0  0  0
   -2.2110    1.2530   -0.0100 C   0  0  0  0  0  0  0  0  0  0  0  0
   -2.6940    2.2580   -0.0160 H   0  0  0  0  0  0  0  0  0  0  0  0
   -2.5690    0.7010   -0.9090 H   0  0  0  0  0  0  0  0  0  0  0  0
   -2.5720    0.7100    0.8930 H   0  0  0  0  0  0  0  0  0  0  0  0
   -0.3740    1.9600    0.8950 H   0  0  0  0  0  0  0  0  0  0  0  0
   -0.3710    1.9510   -0.9150 H   0  0  0  0  0  0  0  0  0  0  0  0
   -0.3480   -0.5670   -0.8960 H   0  0  0  0  0  0  0  0  0  0  0  0
   -0.3480   -0.5570    0.9020 H   0  0  0  0  0  0  0  0  0  0  0  0
  1 30  1  0  0  0  0
  2  1  1  0  0  0  0
  2  7  2  0  0  0  0
  2  3  1  0  0  0  0
  3  4  2  0  0  0  0
  3 21  1  0  0  0  0
  4  5  1  0  0  0  0
  4 20  1  0  0  0  0
  5 19  1  0  0  0  0
  6  7  1  0  0  0  0
  6  5  2  0  0  0  0
  8  7  1  0  0  0  0
  9  6  1  0  0  0  0
  9 10  1  0  0  0  0
  9 18  1  0  0  0  0
 10 15  1  0  0  0  0
 11 12  1  0  0  0  0
 11 10  1  0  0  0  0
 11 14  1  0  0  0  0
 13 11  1  0  0  0  0
 16 10  1  0  0  0  0
 17  9  1  0  0  0  0
 22  1  1  0  0  0  0
 22 27  1  0  0  0  0
 23 22  1  0  0  0  0
 23 26  1  0  0  0  0
 24 23  1  0  0  0  0
 25 23  1  0  0  0  0
 28 22  1  0  0  0  0
 29  1  1  0  0  0  0
M  END
