LIG_h.pdb
 OpenBabel08172101563D

 36 37  0  0  0  0  0  0  0  0999 V2000
    0.0000    0.0000    0.0000 C   0  0  0  0  0  0  0  0  0  0  0  0
    1.4990   -0.2780    0.0030 C   0  0  0  0  0  0  0  0  0  0  0  0
    2.3810    0.7390    0.0030 C   0  0  0  0  0  0  0  0  0  0  0  0
    3.7040    0.5250    0.0050 C   0  0  0  0  0  0  0  0  0  0  0  0
    4.1710   -0.7300    0.0070 C   0  0  0  0  0  0  0  0  0  0  0  0
    3.3160   -1.7680    0.0080 C   0  0  0  0  0  0  0  0  0  0  0  0
    3.8040   -3.0240    0.0110 C   0  0  0  0  0  0  0  0  0  0  0  0
    3.0000   -4.1010    0.0110 C   0  0  0  0  0  0  0  0  0  0  0  0
    1.6760   -3.8720    0.0100 C   0  0  0  0  0  0  0  0  0  0  0  0
    1.1820   -2.6250    0.0080 C   0  0  0  0  0  0  0  0  0  0  0  0
    1.9850   -1.5430    0.0060 C   0  0  0  0  0  0  0  0  0  0  0  0
    0.0840   -2.5390    0.0070 H   0  0  0  0  0  0  0  0  0  0  0  0
    0.9790   -4.7280    0.0110 H   0  0  0  0  0  0  0  0  0  0  0  0
    3.5000   -5.5340    0.0140 C   0  0  0  0  0  0  0  0  0  0  0  0
    5.0210   -5.7510    0.0340 C   0  0  0  0  0  0  0  0  0  0  0  0
    5.3780   -7.2450    0.0400 C   0  0  0  0  0  0  0  0  0  0  0  0
    6.4830   -7.3920    0.0550 H   0  0  0  0  0  0  0  0  0  0  0  0
    4.9580   -7.7570    0.9360 H   0  0  0  0  0  0  0  0  0  0  0  0
    4.9820   -7.7590   -0.8660 H   0  0  0  0  0  0  0  0  0  0  0  0
    5.4610   -5.2790    0.9440 H   0  0  0  0  0  0  0  0  0  0  0  0
    5.4860   -5.2810   -0.8650 H   0  0  0  0  0  0  0  0  0  0  0  0
    3.0620   -6.0420    0.9050 H   0  0  0  0  0  0  0  0  0  0  0  0
    3.0850   -6.0360   -0.8920 H   0  0  0  0  0  0  0  0  0  0  0  0
    4.8950   -3.1730    0.0110 H   0  0  0  0  0  0  0  0  0  0  0  0
    5.2650   -0.8810    0.0090 H   0  0  0  0  0  0  0  0  0  0  0  0
    4.4060    1.3770    0.0040 H   0  0  0  0  0  0  0  0  0  0  0  0
    2.0490    1.7880    0.0010 H   0  0  0  0  0  0  0  0  0  0  0  0
   -0.4680    1.4660   -0.0130 C   0  0  0  0  0  0  0  0  0  0  0  0
   -2.0010    1.5700   -0.0190 C   0  0  0  0  0  0  0  0  0  0  0  0
   -2.3300    2.6350   -0.0290 H   0  0  0  0  0  0  0  0  0  0  0  0
   -2.4360    1.0740   -0.9180 H   0  0  0  0  0  0  0  0  0  0  0  0
   -2.4420    1.0890    0.8850 H   0  0  0  0  0  0  0  0  0  0  0  0
   -0.0790    1.9850   -0.9220 H   0  0  0  0  0  0  0  0  0  0  0  0
   -0.0860    1.9990    0.8900 H   0  0  0  0  0  0  0  0  0  0  0  0
   -0.4370   -0.4880   -0.9030 H   0  0  0  0  0  0  0  0  0  0  0  0
   -0.4390   -0.4740    0.9090 H   0  0  0  0  0  0  0  0  0  0  0  0
  1  2  1  0  0  0  0
  1 36  1  0  0  0  0
  2  3  2  0  0  0  0
  2 11  1  0  0  0  0
  3  4  1  0  0  0  0
  4  5  2  0  0  0  0
  5  6  1  0  0  0  0
  5 25  1  0  0  0  0
  6  7  1  0  0  0  0
  7  8  2  0  0  0  0
  7 24  1  0  0  0  0
  8 14  1  0  0  0  0
  9 13  1  0  0  0  0
  9  8  1  0  0  0  0
 10  9  2  0  0  0  0
 11  6  2  0  0  0  0
 11 10  1  0  0  0  0
 12 10  1  0  0  0  0
 14 15  1  0  0  0  0
 14 22  1  0  0  0  0
 15 16  1  0  0  0  0
 15 20  1  0  0  0  0
 16 17  1  0  0  0  0
 16 18  1  0  0  0  0
 19 16  1  0  0  0  0
 21 15  1  0  0  0  0
 23 14  1  0  0  0  0
 26  4  1  0  0  0  0
 27  3  1  0  0  0  0
 28  1  1  0  0  0  0
 28 34  1  0  0  0  0
 29 28  1  0  0  0  0
 29 32  1  0  0  0  0
 30 29  1  0  0  0  0
 31 29  1  0  0  0  0
 33 28  1  0  0  0  0
 35  1  1  0  0  0  0
M  END
