LIG_h.pdb
 OpenBabel08172101563D

 36 37  0  0  0  0  0  0  0  0999 V2000
    0.0000    0.0000    0.0000 C   0  0  0  0  0  0  0  0  0  0  0  0
   -0.4240    1.4540   -0.0620 C   0  0  0  0  0  0  0  0  0  0  0  0
   -1.7180    1.7140   -0.2990 C   0  0  0  0  0  0  0  0  0  0  0  0
   -2.1530    2.9740   -0.4360 C   0  0  0  0  0  0  0  0  0  0  0  0
   -1.2900    3.9990   -0.3510 C   0  0  0  0  0  0  0  0  0  0  0  0
    0.0050    3.7760   -0.0430 C   0  0  0  0  0  0  0  0  0  0  0  0
    0.4070    2.4980    0.1040 C   0  0  0  0  0  0  0  0  0  0  0  0
    1.4550    2.2700    0.3410 H   0  0  0  0  0  0  0  0  0  0  0  0
    0.8540    4.8230    0.0890 C   0  0  0  0  0  0  0  0  0  0  0  0
    0.3870    6.0630   -0.1690 C   0  0  0  0  0  0  0  0  0  0  0  0
   -0.8940    6.2750   -0.5070 C   0  0  0  0  0  0  0  0  0  0  0  0
   -1.7410    5.2440   -0.5770 C   0  0  0  0  0  0  0  0  0  0  0  0
   -2.7990    5.4280   -0.8430 H   0  0  0  0  0  0  0  0  0  0  0  0
   -1.2710    7.2910   -0.7180 H   0  0  0  0  0  0  0  0  0  0  0  0
    1.0550    6.9390   -0.1030 H   0  0  0  0  0  0  0  0  0  0  0  0
    2.3090    4.6500    0.5230 C   0  0  0  0  0  0  0  0  0  0  0  0
    3.2400    4.1220   -0.5860 C   0  0  0  0  0  0  0  0  0  0  0  0
    4.6100    4.8120   -0.6820 C   0  0  0  0  0  0  0  0  0  0  0  0
    4.5060    5.8230   -1.1410 H   0  0  0  0  0  0  0  0  0  0  0  0
    5.1050    4.9150    0.3120 H   0  0  0  0  0  0  0  0  0  0  0  0
    5.3020    4.2300   -1.3370 H   0  0  0  0  0  0  0  0  0  0  0  0
    2.7330    4.2090   -1.5760 H   0  0  0  0  0  0  0  0  0  0  0  0
    3.4220    3.0340   -0.4180 H   0  0  0  0  0  0  0  0  0  0  0  0
    2.6980    5.5930    0.9730 H   0  0  0  0  0  0  0  0  0  0  0  0
    2.3380    3.9520    1.3930 H   0  0  0  0  0  0  0  0  0  0  0  0
   -3.2240    3.1360   -0.6460 H   0  0  0  0  0  0  0  0  0  0  0  0
   -2.4410    0.8900   -0.4060 H   0  0  0  0  0  0  0  0  0  0  0  0
    1.4860   -0.3550   -0.1720 C   0  0  0  0  0  0  0  0  0  0  0  0
    1.6800   -1.8790   -0.0950 C   0  0  0  0  0  0  0  0  0  0  0  0
    2.7520   -2.1650   -0.1960 H   0  0  0  0  0  0  0  0  0  0  0  0
    1.3200   -2.2730    0.8840 H   0  0  0  0  0  0  0  0  0  0  0  0
    1.1140   -2.4050   -0.8990 H   0  0  0  0  0  0  0  0  0  0  0  0
    2.1000    0.1150    0.6310 H   0  0  0  0  0  0  0  0  0  0  0  0
    1.8610    0.0170   -1.1550 H   0  0  0  0  0  0  0  0  0  0  0  0
   -0.3790   -0.4220    0.9610 H   0  0  0  0  0  0  0  0  0  0  0  0
   -0.5410   -0.5210   -0.8270 H   0  0  0  0  0  0  0  0  0  0  0  0
  1 35  1  0  0  0  0
  2  1  1  0  0  0  0
  2  7  1  0  0  0  0
  3  2  2  0  0  0  0
  4  5  2  0  0  0  0
  4  3  1  0  0  0  0
  5  6  1  0  0  0  0
  6  9  1  0  0  0  0
  6  7  2  0  0  0  0
  7  8  1  0  0  0  0
  9 16  1  0  0  0  0
 10 15  1  0  0  0  0
 10  9  2  0  0  0  0
 11 10  1  0  0  0  0
 12 11  2  0  0  0  0
 12  5  1  0  0  0  0
 13 12  1  0  0  0  0
 14 11  1  0  0  0  0
 16 24  1  0  0  0  0
 16 25  1  0  0  0  0
 17 23  1  0  0  0  0
 17 16  1  0  0  0  0
 18 17  1  0  0  0  0
 18 20  1  0  0  0  0
 19 18  1  0  0  0  0
 21 18  1  0  0  0  0
 22 17  1  0  0  0  0
 26  4  1  0  0  0  0
 27  3  1  0  0  0  0
 28 29  1  0  0  0  0
 28  1  1  0  0  0  0
 28 33  1  0  0  0  0
 29 31  1  0  0  0  0
 30 29  1  0  0  0  0
 32 29  1  0  0  0  0
 34 28  1  0  0  0  0
 36  1  1  0  0  0  0
M  END
