LIG_h.pdb
 OpenBabel08172101563D

 36 37  0  0  0  0  0  0  0  0999 V2000
    0.0000    0.0000    0.0000 C   0  0  0  0  0  0  0  0  0  0  0  0
    1.5250   -0.0390    0.0020 C   0  0  0  0  0  0  0  0  0  0  0  0
    2.2250    1.1100    0.0010 C   0  0  0  0  0  0  0  0  0  0  0  0
    3.5620    1.1080    0.0020 C   0  0  0  0  0  0  0  0  0  0  0  0
    4.2220   -0.0570    0.0030 C   0  0  0  0  0  0  0  0  0  0  0  0
    3.5690   -1.2350    0.0050 C   0  0  0  0  0  0  0  0  0  0  0  0
    4.2570   -2.4050    0.0070 C   0  0  0  0  0  0  0  0  0  0  0  0
    3.5570   -3.5540    0.0110 C   0  0  0  0  0  0  0  0  0  0  0  0
    2.2200   -3.5520    0.0130 C   0  0  0  0  0  0  0  0  0  0  0  0
    1.5600   -2.3880    0.0090 C   0  0  0  0  0  0  0  0  0  0  0  0
    2.2130   -1.2090    0.0050 C   0  0  0  0  0  0  0  0  0  0  0  0
    0.4610   -2.4620    0.0110 H   0  0  0  0  0  0  0  0  0  0  0  0
    1.6640   -4.5070    0.0170 H   0  0  0  0  0  0  0  0  0  0  0  0
    4.0530   -4.5360    0.0140 H   0  0  0  0  0  0  0  0  0  0  0  0
    5.7820   -2.4460    0.0040 C   0  0  0  0  0  0  0  0  0  0  0  0
    6.4760   -3.8190   -0.0090 C   0  0  0  0  0  0  0  0  0  0  0  0
    8.0070   -3.6810   -0.0110 C   0  0  0  0  0  0  0  0  0  0  0  0
    8.3610   -3.1190   -0.9060 H   0  0  0  0  0  0  0  0  0  0  0  0
    8.3650   -3.1420    0.8960 H   0  0  0  0  0  0  0  0  0  0  0  0
    8.4990   -4.6810   -0.0250 H   0  0  0  0  0  0  0  0  0  0  0  0
    6.1830   -4.4080    0.8930 H   0  0  0  0  0  0  0  0  0  0  0  0
    6.1770   -4.3920   -0.9190 H   0  0  0  0  0  0  0  0  0  0  0  0
    6.1390   -1.8990   -0.9000 H   0  0  0  0  0  0  0  0  0  0  0  0
    6.1420   -1.9110    0.9150 H   0  0  0  0  0  0  0  0  0  0  0  0
    5.3210    0.0180    0.0040 H   0  0  0  0  0  0  0  0  0  0  0  0
    4.1180    2.0620    0.0010 H   0  0  0  0  0  0  0  0  0  0  0  0
    1.7280    2.0920   -0.0010 H   0  0  0  0  0  0  0  0  0  0  0  0
   -0.6980    1.3720   -0.0130 C   0  0  0  0  0  0  0  0  0  0  0  0
   -2.2280    1.2260   -0.0220 C   0  0  0  0  0  0  0  0  0  0  0  0
   -2.5760    0.6640   -0.9200 H   0  0  0  0  0  0  0  0  0  0  0  0
   -2.5870    0.6830    0.8820 H   0  0  0  0  0  0  0  0  0  0  0  0
   -2.7250    2.2230   -0.0360 H   0  0  0  0  0  0  0  0  0  0  0  0
   -0.4090    1.9600    0.8900 H   0  0  0  0  0  0  0  0  0  0  0  0
   -0.3980    1.9470   -0.9220 H   0  0  0  0  0  0  0  0  0  0  0  0
   -0.3560   -0.5480   -0.9040 H   0  0  0  0  0  0  0  0  0  0  0  0
   -0.3590   -0.5350    0.9110 H   0  0  0  0  0  0  0  0  0  0  0  0
  1  2  1  0  0  0  0
  1 36  1  0  0  0  0
  2 11  1  0  0  0  0
  3  2  2  0  0  0  0
  3  4  1  0  0  0  0
  4  5  2  0  0  0  0
  5 25  1  0  0  0  0
  5  6  1  0  0  0  0
  6  7  1  0  0  0  0
  7  8  2  0  0  0  0
  8  9  1  0  0  0  0
  8 14  1  0  0  0  0
  9 13  1  0  0  0  0
 10 12  1  0  0  0  0
 10  9  2  0  0  0  0
 11  6  2  0  0  0  0
 11 10  1  0  0  0  0
 15  7  1  0  0  0  0
 15 24  1  0  0  0  0
 16 15  1  0  0  0  0
 16 21  1  0  0  0  0
 17 16  1  0  0  0  0
 17 19  1  0  0  0  0
 18 17  1  0  0  0  0
 20 17  1  0  0  0  0
 22 16  1  0  0  0  0
 23 15  1  0  0  0  0
 26  4  1  0  0  0  0
 27  3  1  0  0  0  0
 28  1  1  0  0  0  0
 28 33  1  0  0  0  0
 29 28  1  0  0  0  0
 29 31  1  0  0  0  0
 30 29  1  0  0  0  0
 32 29  1  0  0  0  0
 34 28  1  0  0  0  0
 35  1  1  0  0  0  0
M  END
