LIG_h.pdb
 OpenBabel08172101563D

 42 44  0  0  0  0  0  0  0  0999 V2000
    0.0000    0.0000    0.0000 C   0  0  0  0  0  0  0  0  0  0  0  0
    0.8800    1.2340   -0.0190 C   0  0  0  0  0  0  0  0  0  0  0  0
    2.2180    1.2120   -0.0040 C   0  0  0  0  0  0  0  0  0  0  0  0
    2.9320    2.3490   -0.0220 C   0  0  0  0  0  0  0  0  0  0  0  0
    2.4160    3.5970   -0.0560 C   0  0  0  0  0  0  0  0  0  0  0  0
    1.0590    3.5860   -0.0700 C   0  0  0  0  0  0  0  0  0  0  0  0
    0.3270    2.4550   -0.0520 C   0  0  0  0  0  0  0  0  0  0  0  0
   -0.7770    2.4960   -0.0640 H   0  0  0  0  0  0  0  0  0  0  0  0
    0.3620    4.7310   -0.1020 C   0  0  0  0  0  0  0  0  0  0  0  0
    1.0160    5.8920   -0.1210 C   0  0  0  0  0  0  0  0  0  0  0  0
    2.3590    5.9140   -0.1080 C   0  0  0  0  0  0  0  0  0  0  0  0
    3.1090    4.7780   -0.0760 C   0  0  0  0  0  0  0  0  0  0  0  0
    4.4660    4.9670   -0.0690 C   0  0  0  0  0  0  0  0  0  0  0  0
    4.9680    6.2190   -0.0910 C   0  0  0  0  0  0  0  0  0  0  0  0
    4.2090    7.3160   -0.1220 C   0  0  0  0  0  0  0  0  0  0  0  0
    2.8870    7.1510   -0.1310 C   0  0  0  0  0  0  0  0  0  0  0  0
    2.2660    8.0640   -0.1560 H   0  0  0  0  0  0  0  0  0  0  0  0
    4.6570    8.3260   -0.1400 H   0  0  0  0  0  0  0  0  0  0  0  0
    6.0490    6.4180   -0.0860 H   0  0  0  0  0  0  0  0  0  0  0  0
    5.5190    3.8630   -0.0360 C   0  0  0  0  0  0  0  0  0  0  0  0
    7.0250    4.2010   -0.0350 C   0  0  0  0  0  0  0  0  0  0  0  0
    7.8850    2.9260   -0.0020 C   0  0  0  0  0  0  0  0  0  0  0  0
    8.9710    3.1760   -0.0010 H   0  0  0  0  0  0  0  0  0  0  0  0
    7.6790    2.3220    0.9110 H   0  0  0  0  0  0  0  0  0  0  0  0
    7.6890    2.2820   -0.8900 H   0  0  0  0  0  0  0  0  0  0  0  0
    7.3000    4.7720   -0.9540 H   0  0  0  0  0  0  0  0  0  0  0  0
    7.2890    4.8120    0.8620 H   0  0  0  0  0  0  0  0  0  0  0  0
    5.3680    3.2910    0.9090 H   0  0  0  0  0  0  0  0  0  0  0  0
    5.3800    3.2480   -0.9560 H   0  0  0  0  0  0  0  0  0  0  0  0
    0.4080    6.8150   -0.1470 H   0  0  0  0  0  0  0  0  0  0  0  0
   -0.7430    4.7530   -0.1130 H   0  0  0  0  0  0  0  0  0  0  0  0
    3.9990    2.1300   -0.0050 H   0  0  0  0  0  0  0  0  0  0  0  0
    2.7550    0.2490    0.0240 H   0  0  0  0  0  0  0  0  0  0  0  0
    0.7080   -1.3630    0.0340 C   0  0  0  0  0  0  0  0  0  0  0  0
   -0.2980   -2.5240    0.0490 C   0  0  0  0  0  0  0  0  0  0  0  0
    0.2260   -3.5070    0.0740 H   0  0  0  0  0  0  0  0  0  0  0  0
   -0.9610   -2.4710    0.9430 H   0  0  0  0  0  0  0  0  0  0  0  0
   -0.9440   -2.5080   -0.8590 H   0  0  0  0  0  0  0  0  0  0  0  0
    1.3480   -1.4370    0.9470 H   0  0  0  0  0  0  0  0  0  0  0  0
    1.3640   -1.4740   -0.8620 H   0  0  0  0  0  0  0  0  0  0  0  0
   -0.6660    0.0730    0.8920 H   0  0  0  0  0  0  0  0  0  0  0  0
   -0.6510    0.0350   -0.9050 H   0  0  0  0  0  0  0  0  0  0  0  0
  1 34  1  0  0  0  0
  1 41  1  0  0  0  0
  2  3  1  0  0  0  0
  2  1  1  0  0  0  0
  3 33  1  0  0  0  0
  4 32  1  0  0  0  0
  4  3  2  0  0  0  0
  5  4  1  0  0  0  0
  6  5  1  0  0  0  0
  6  7  1  0  0  0  0
  7  2  2  0  0  0  0
  8  7  1  0  0  0  0
  9  6  2  0  0  0  0
 10 11  2  0  0  0  0
 10  9  1  0  0  0  0
 11 12  1  0  0  0  0
 12 13  1  0  0  0  0
 12  5  2  0  0  0  0
 13 20  1  0  0  0  0
 14 19  1  0  0  0  0
 14 13  2  0  0  0  0
 15 14  1  0  0  0  0
 16 15  2  0  0  0  0
 16 11  1  0  0  0  0
 17 16  1  0  0  0  0
 18 15  1  0  0  0  0
 20 21  1  0  0  0  0
 20 28  1  0  0  0  0
 21 22  1  0  0  0  0
 21 27  1  0  0  0  0
 22 23  1  0  0  0  0
 22 24  1  0  0  0  0
 25 22  1  0  0  0  0
 26 21  1  0  0  0  0
 29 20  1  0  0  0  0
 30 10  1  0  0  0  0
 31  9  1  0  0  0  0
 34 35  1  0  0  0  0
 34 39  1  0  0  0  0
 35 36  1  0  0  0  0
 35 37  1  0  0  0  0
 38 35  1  0  0  0  0
 40 34  1  0  0  0  0
 42  1  1  0  0  0  0
M  END
