LIG_h.pdb
 OpenBabel08172101563D

 36 37  0  0  0  0  0  0  0  0999 V2000
    0.0000    0.0000    0.0000 C   0  0  0  0  0  0  0  0  0  0  0  0
   -0.5890    1.3990   -0.0010 C   0  0  0  0  0  0  0  0  0  0  0  0
   -1.9270    1.5370   -0.0010 C   0  0  0  0  0  0  0  0  0  0  0  0
   -2.5040    2.7480   -0.0020 C   0  0  0  0  0  0  0  0  0  0  0  0
   -1.7530    3.8620   -0.0020 C   0  0  0  0  0  0  0  0  0  0  0  0
   -0.4120    3.7430   -0.0020 C   0  0  0  0  0  0  0  0  0  0  0  0
    0.1520    2.5210   -0.0020 C   0  0  0  0  0  0  0  0  0  0  0  0
    1.2510    2.4460   -0.0020 H   0  0  0  0  0  0  0  0  0  0  0  0
    0.3370    4.8610   -0.0030 C   0  0  0  0  0  0  0  0  0  0  0  0
   -0.2360    6.0740   -0.0040 C   0  0  0  0  0  0  0  0  0  0  0  0
   -1.5740    6.2100   -0.0040 C   0  0  0  0  0  0  0  0  0  0  0  0
   -2.3130    5.0850   -0.0030 C   0  0  0  0  0  0  0  0  0  0  0  0
   -3.4120    5.1840   -0.0030 H   0  0  0  0  0  0  0  0  0  0  0  0
   -2.2800    7.5530   -0.0050 C   0  0  0  0  0  0  0  0  0  0  0  0
   -1.3990    8.8120   -0.0270 C   0  0  0  0  0  0  0  0  0  0  0  0
   -2.2440   10.0940   -0.0330 C   0  0  0  0  0  0  0  0  0  0  0  0
   -1.5950   11.0010   -0.0480 H   0  0  0  0  0  0  0  0  0  0  0  0
   -2.9060   10.1380   -0.9280 H   0  0  0  0  0  0  0  0  0  0  0  0
   -2.8890   10.1560    0.8740 H   0  0  0  0  0  0  0  0  0  0  0  0
   -0.7360    8.8290    0.8720 H   0  0  0  0  0  0  0  0  0  0  0  0
   -0.7540    8.8090   -0.9380 H   0  0  0  0  0  0  0  0  0  0  0  0
   -2.9520    7.5820   -0.8950 H   0  0  0  0  0  0  0  0  0  0  0  0
   -2.9290    7.5950    0.9030 H   0  0  0  0  0  0  0  0  0  0  0  0
    0.4240    6.9560   -0.0040 H   0  0  0  0  0  0  0  0  0  0  0  0
    1.4390    4.8000   -0.0030 H   0  0  0  0  0  0  0  0  0  0  0  0
   -3.6070    2.8080   -0.0020 H   0  0  0  0  0  0  0  0  0  0  0  0
   -2.5680    0.6390   -0.0010 H   0  0  0  0  0  0  0  0  0  0  0  0
    1.5320   -0.1220    0.0220 C   0  0  0  0  0  0  0  0  0  0  0  0
    1.9820   -1.5910    0.0270 C   0  0  0  0  0  0  0  0  0  0  0  0
    3.0940   -1.6680    0.0430 H   0  0  0  0  0  0  0  0  0  0  0  0
    1.5930   -2.1290    0.9230 H   0  0  0  0  0  0  0  0  0  0  0  0
    1.6190   -2.1270   -0.8800 H   0  0  0  0  0  0  0  0  0  0  0  0
    1.9410    0.3760    0.9330 H   0  0  0  0  0  0  0  0  0  0  0  0
    1.9670    0.3770   -0.8770 H   0  0  0  0  0  0  0  0  0  0  0  0
   -0.4060   -0.5360    0.8900 H   0  0  0  0  0  0  0  0  0  0  0  0
   -0.3810   -0.5270   -0.9070 H   0  0  0  0  0  0  0  0  0  0  0  0
  1 28  1  0  0  0  0
  1 35  1  0  0  0  0
  2  3  1  0  0  0  0
  2  1  1  0  0  0  0
  4  3  2  0  0  0  0
  5  4  1  0  0  0  0
  6  5  1  0  0  0  0
  7  6  1  0  0  0  0
  7  2  2  0  0  0  0
  8  7  1  0  0  0  0
  9  6  2  0  0  0  0
 10 11  2  0  0  0  0
 10  9  1  0  0  0  0
 11 12  1  0  0  0  0
 12  5  2  0  0  0  0
 13 12  1  0  0  0  0
 14 11  1  0  0  0  0
 14 23  1  0  0  0  0
 15 14  1  0  0  0  0
 15 20  1  0  0  0  0
 16 15  1  0  0  0  0
 16 19  1  0  0  0  0
 17 16  1  0  0  0  0
 18 16  1  0  0  0  0
 21 15  1  0  0  0  0
 22 14  1  0  0  0  0
 24 10  1  0  0  0  0
 25  9  1  0  0  0  0
 26  4  1  0  0  0  0
 27  3  1  0  0  0  0
 28 29  1  0  0  0  0
 28 33  1  0  0  0  0
 29 30  1  0  0  0  0
 29 31  1  0  0  0  0
 32 29  1  0  0  0  0
 34 28  1  0  0  0  0
 36  1  1  0  0  0  0
M  END
