LIG_h.pdb
 OpenBabel08172101563D

 36 37  0  0  0  0  0  0  0  0999 V2000
    0.0000    0.0000    0.0000 C   0  0  0  0  0  0  0  0  0  0  0  0
   -1.5200    0.1010   -0.0530 C   0  0  0  0  0  0  0  0  0  0  0  0
   -2.2760   -1.0110   -0.1340 C   0  0  0  0  0  0  0  0  0  0  0  0
   -3.6130   -0.9520   -0.1820 C   0  0  0  0  0  0  0  0  0  0  0  0
   -4.2250    0.2380   -0.1490 C   0  0  0  0  0  0  0  0  0  0  0  0
   -3.5000    1.3680   -0.0680 C   0  0  0  0  0  0  0  0  0  0  0  0
   -2.1520    1.3000   -0.0200 C   0  0  0  0  0  0  0  0  0  0  0  0
   -1.4840    2.4670    0.0610 C   0  0  0  0  0  0  0  0  0  0  0  0
   -2.1220    3.6460    0.0930 C   0  0  0  0  0  0  0  0  0  0  0  0
   -3.4620    3.7190    0.0470 C   0  0  0  0  0  0  0  0  0  0  0  0
   -4.1320    2.5570   -0.0340 C   0  0  0  0  0  0  0  0  0  0  0  0
   -5.2320    2.5770   -0.0750 H   0  0  0  0  0  0  0  0  0  0  0  0
   -4.1280    5.0820    0.0880 C   0  0  0  0  0  0  0  0  0  0  0  0
   -5.6630    5.1200    0.0350 C   0  0  0  0  0  0  0  0  0  0  0  0
   -6.1950    6.5600    0.0850 C   0  0  0  0  0  0  0  0  0  0  0  0
   -5.8180    7.1600   -0.7750 H   0  0  0  0  0  0  0  0  0  0  0  0
   -7.3090    6.5770    0.0470 H   0  0  0  0  0  0  0  0  0  0  0  0
   -5.8820    7.0730    1.0240 H   0  0  0  0  0  0  0  0  0  0  0  0
   -6.0240    4.6430   -0.9070 H   0  0  0  0  0  0  0  0  0  0  0  0
   -6.0890    4.5560    0.9000 H   0  0  0  0  0  0  0  0  0  0  0  0
   -3.7970    5.5900    1.0240 H   0  0  0  0  0  0  0  0  0  0  0  0
   -3.7330    5.6760   -0.7690 H   0  0  0  0  0  0  0  0  0  0  0  0
   -1.5310    4.5760    0.1600 H   0  0  0  0  0  0  0  0  0  0  0  0
   -0.3840    2.5090    0.1040 H   0  0  0  0  0  0  0  0  0  0  0  0
   -5.3280    0.2610   -0.1890 H   0  0  0  0  0  0  0  0  0  0  0  0
   -4.2090   -1.8790   -0.2490 H   0  0  0  0  0  0  0  0  0  0  0  0
   -1.8220   -2.0130   -0.1650 H   0  0  0  0  0  0  0  0  0  0  0  0
    0.6380   -1.4000   -0.0410 C   0  0  0  0  0  0  0  0  0  0  0  0
    2.1710   -1.3250    0.0200 C   0  0  0  0  0  0  0  0  0  0  0  0
    2.5820   -0.7490   -0.8420 H   0  0  0  0  0  0  0  0  0  0  0  0
    2.5150   -0.8300    0.9570 H   0  0  0  0  0  0  0  0  0  0  0  0
    2.6230   -2.3440   -0.0090 H   0  0  0  0  0  0  0  0  0  0  0  0
    0.2830   -2.0090    0.8250 H   0  0  0  0  0  0  0  0  0  0  0  0
    0.3510   -1.9250   -0.9840 H   0  0  0  0  0  0  0  0  0  0  0  0
    0.4120    0.5710   -0.8650 H   0  0  0  0  0  0  0  0  0  0  0  0
    0.3430    0.4860    0.9440 H   0  0  0  0  0  0  0  0  0  0  0  0
  1 36  1  0  0  0  0
  2  7  1  0  0  0  0
  2  1  1  0  0  0  0
  3  2  2  0  0  0  0
  4  5  2  0  0  0  0
  4  3  1  0  0  0  0
  5  6  1  0  0  0  0
  6 11  2  0  0  0  0
  6  7  1  0  0  0  0
  7  8  2  0  0  0  0
  8  9  1  0  0  0  0
  8 24  1  0  0  0  0
  9 23  1  0  0  0  0
 10 13  1  0  0  0  0
 10  9  2  0  0  0  0
 11 10  1  0  0  0  0
 12 11  1  0  0  0  0
 13 21  1  0  0  0  0
 14 15  1  0  0  0  0
 14 13  1  0  0  0  0
 14 20  1  0  0  0  0
 15 18  1  0  0  0  0
 16 15  1  0  0  0  0
 17 15  1  0  0  0  0
 19 14  1  0  0  0  0
 22 13  1  0  0  0  0
 25  5  1  0  0  0  0
 26  4  1  0  0  0  0
 27  3  1  0  0  0  0
 28  1  1  0  0  0  0
 28 29  1  0  0  0  0
 28 33  1  0  0  0  0
 29 31  1  0  0  0  0
 30 29  1  0  0  0  0
 32 29  1  0  0  0  0
 34 28  1  0  0  0  0
 35  1  1  0  0  0  0
M  END
