LIG_h.pdb
 OpenBabel08172101563D

 36 37  0  0  0  0  0  0  0  0999 V2000
    0.0000    0.0000    0.0000 C   0  0  0  0  0  0  0  0  0  0  0  0
   -1.4680    0.3610    0.2050 C   0  0  0  0  0  0  0  0  0  0  0  0
   -2.3080   -0.6880    0.3230 C   0  0  0  0  0  0  0  0  0  0  0  0
   -3.6180   -0.5530    0.5430 C   0  0  0  0  0  0  0  0  0  0  0  0
   -4.1110    0.6810    0.6580 C   0  0  0  0  0  0  0  0  0  0  0  0
   -3.3010    1.7490    0.5330 C   0  0  0  0  0  0  0  0  0  0  0  0
   -1.9680    1.6290    0.2870 C   0  0  0  0  0  0  0  0  0  0  0  0
   -1.2760    2.7970    0.1480 C   0  0  0  0  0  0  0  0  0  0  0  0
   -1.9090    3.9790    0.2990 C   0  0  0  0  0  0  0  0  0  0  0  0
   -3.2140    4.0740    0.5640 C   0  0  0  0  0  0  0  0  0  0  0  0
   -3.9110    2.9410    0.6700 C   0  0  0  0  0  0  0  0  0  0  0  0
   -4.9930    3.0300    0.8760 H   0  0  0  0  0  0  0  0  0  0  0  0
   -3.7040    5.0570    0.6790 H   0  0  0  0  0  0  0  0  0  0  0  0
   -1.3570    4.9300    0.2040 H   0  0  0  0  0  0  0  0  0  0  0  0
    0.2000    2.9800   -0.1860 C   0  0  0  0  0  0  0  0  0  0  0  0
    1.0540    3.2160    1.0720 C   0  0  0  0  0  0  0  0  0  0  0  0
    2.5530    3.2120    0.7470 C   0  0  0  0  0  0  0  0  0  0  0  0
    3.1620    3.4060    1.6600 H   0  0  0  0  0  0  0  0  0  0  0  0
    2.8710    2.2270    0.3330 H   0  0  0  0  0  0  0  0  0  0  0  0
    2.8050    3.9980   -0.0020 H   0  0  0  0  0  0  0  0  0  0  0  0
    0.7800    4.1950    1.5350 H   0  0  0  0  0  0  0  0  0  0  0  0
    0.8450    2.4400    1.8440 H   0  0  0  0  0  0  0  0  0  0  0  0
    0.6060    2.1940   -0.8500 H   0  0  0  0  0  0  0  0  0  0  0  0
    0.3270    3.8680   -0.8500 H   0  0  0  0  0  0  0  0  0  0  0  0
   -5.1940    0.7800    0.8530 H   0  0  0  0  0  0  0  0  0  0  0  0
   -4.2760   -1.4350    0.6380 H   0  0  0  0  0  0  0  0  0  0  0  0
   -1.9550   -1.7260    0.2470 H   0  0  0  0  0  0  0  0  0  0  0  0
    0.4930   -1.4230    0.3340 C   0  0  0  0  0  0  0  0  0  0  0  0
    2.0250   -1.5260    0.2470 C   0  0  0  0  0  0  0  0  0  0  0  0
    2.3900   -1.2590   -0.7710 H   0  0  0  0  0  0  0  0  0  0  0  0
    2.5220   -0.8470    0.9780 H   0  0  0  0  0  0  0  0  0  0  0  0
    2.3690   -2.5640    0.4680 H   0  0  0  0  0  0  0  0  0  0  0  0
    0.1820   -1.7030    1.3700 H   0  0  0  0  0  0  0  0  0  0  0  0
    0.0680   -2.1690   -0.3800 H   0  0  0  0  0  0  0  0  0  0  0  0
    0.2540    0.1760   -1.0710 H   0  0  0  0  0  0  0  0  0  0  0  0
    0.6050    0.6410    0.6730 H   0  0  0  0  0  0  0  0  0  0  0  0
  1  2  1  0  0  0  0
  1 28  1  0  0  0  0
  1 36  1  0  0  0  0
  2  7  2  0  0  0  0
  2  3  1  0  0  0  0
  3  4  2  0  0  0  0
  4 26  1  0  0  0  0
  4  5  1  0  0  0  0
  5 25  1  0  0  0  0
  6  5  2  0  0  0  0
  6 11  1  0  0  0  0
  7  6  1  0  0  0  0
  8  7  1  0  0  0  0
  8  9  2  0  0  0  0
  9 10  1  0  0  0  0
 10 11  2  0  0  0  0
 10 13  1  0  0  0  0
 11 12  1  0  0  0  0
 14  9  1  0  0  0  0
 15  8  1  0  0  0  0
 15 16  1  0  0  0  0
 16 21  1  0  0  0  0
 16 22  1  0  0  0  0
 17 16  1  0  0  0  0
 17 18  1  0  0  0  0
 19 17  1  0  0  0  0
 20 17  1  0  0  0  0
 23 15  1  0  0  0  0
 24 15  1  0  0  0  0
 27  3  1  0  0  0  0
 28 33  1  0  0  0  0
 29 28  1  0  0  0  0
 29 32  1  0  0  0  0
 29 31  1  0  0  0  0
 30 29  1  0  0  0  0
 34 28  1  0  0  0  0
 35  1  1  0  0  0  0
M  END
