LIG_h.pdb
 OpenBabel08172101563D

 42 44  0  0  0  0  0  0  0  0999 V2000
    0.0000    0.0000    0.0000 C   0  0  0  0  0  0  0  0  0  0  0  0
    0.7830    1.2990   -0.0210 C   0  0  0  0  0  0  0  0  0  0  0  0
    2.1230    1.3660   -0.0110 C   0  0  0  0  0  0  0  0  0  0  0  0
    2.7600    2.5470   -0.0310 C   0  0  0  0  0  0  0  0  0  0  0  0
    2.1050    3.7260   -0.0610 C   0  0  0  0  0  0  0  0  0  0  0  0
    0.7550    3.6550   -0.0720 C   0  0  0  0  0  0  0  0  0  0  0  0
    0.1210    2.4680   -0.0520 C   0  0  0  0  0  0  0  0  0  0  0  0
   -0.9820    2.4290   -0.0610 H   0  0  0  0  0  0  0  0  0  0  0  0
    0.0240    4.7820   -0.1020 C   0  0  0  0  0  0  0  0  0  0  0  0
    0.6250    5.9770   -0.1230 C   0  0  0  0  0  0  0  0  0  0  0  0
    1.9660    6.0620   -0.1130 C   0  0  0  0  0  0  0  0  0  0  0  0
    2.7140    4.9380   -0.0820 C   0  0  0  0  0  0  0  0  0  0  0  0
    4.0510    5.1150   -0.0740 C   0  0  0  0  0  0  0  0  0  0  0  0
    4.6190    6.3310   -0.0950 C   0  0  0  0  0  0  0  0  0  0  0  0
    3.8730    7.4460   -0.1260 C   0  0  0  0  0  0  0  0  0  0  0  0
    2.5400    7.2790   -0.1340 C   0  0  0  0  0  0  0  0  0  0  0  0
    1.9130    8.1880   -0.1590 H   0  0  0  0  0  0  0  0  0  0  0  0
    4.4490    8.8490   -0.1510 C   0  0  0  0  0  0  0  0  0  0  0  0
    5.9810    8.9790   -0.1460 C   0  0  0  0  0  0  0  0  0  0  0  0
    6.4240   10.4490   -0.1750 C   0  0  0  0  0  0  0  0  0  0  0  0
    7.5360   10.5320   -0.1710 H   0  0  0  0  0  0  0  0  0  0  0  0
    6.0500   10.9650   -1.0890 H   0  0  0  0  0  0  0  0  0  0  0  0
    6.0410   11.0030    0.7130 H   0  0  0  0  0  0  0  0  0  0  0  0
    6.4010    8.5010    0.7710 H   0  0  0  0  0  0  0  0  0  0  0  0
    6.4100    8.4620   -1.0380 H   0  0  0  0  0  0  0  0  0  0  0  0
    4.0570    9.3600   -1.0620 H   0  0  0  0  0  0  0  0  0  0  0  0
    4.0480    9.3950    0.7350 H   0  0  0  0  0  0  0  0  0  0  0  0
    5.7190    6.3910   -0.0870 H   0  0  0  0  0  0  0  0  0  0  0  0
    4.7600    4.2740   -0.0500 H   0  0  0  0  0  0  0  0  0  0  0  0
   -0.0090    6.8810   -0.1480 H   0  0  0  0  0  0  0  0  0  0  0  0
   -1.0800    4.7500   -0.1110 H   0  0  0  0  0  0  0  0  0  0  0  0
    3.8580    2.4800   -0.0190 H   0  0  0  0  0  0  0  0  0  0  0  0
    2.7310    0.4470    0.0140 H   0  0  0  0  0  0  0  0  0  0  0  0
    0.8080   -1.3060    0.0340 C   0  0  0  0  0  0  0  0  0  0  0  0
   -0.1080   -2.5390    0.0530 C   0  0  0  0  0  0  0  0  0  0  0  0
    0.4870   -3.4800    0.0780 H   0  0  0  0  0  0  0  0  0  0  0  0
   -0.7710   -2.5350    0.9490 H   0  0  0  0  0  0  0  0  0  0  0  0
   -0.7560   -2.5730   -0.8530 H   0  0  0  0  0  0  0  0  0  0  0  0
    1.4530   -1.3320    0.9460 H   0  0  0  0  0  0  0  0  0  0  0  0
    1.4690   -1.3700   -0.8640 H   0  0  0  0  0  0  0  0  0  0  0  0
   -0.6690    0.0220    0.8930 H   0  0  0  0  0  0  0  0  0  0  0  0
   -0.6540   -0.0160   -0.9040 H   0  0  0  0  0  0  0  0  0  0  0  0
  1 34  1  0  0  0  0
  1 41  1  0  0  0  0
  2  3  1  0  0  0  0
  2  1  1  0  0  0  0
  3 33  1  0  0  0  0
  4 32  1  0  0  0  0
  4  3  2  0  0  0  0
  5  4  1  0  0  0  0
  6  5  1  0  0  0  0
  6  7  1  0  0  0  0
  7  2  2  0  0  0  0
  8  7  1  0  0  0  0
  9  6  2  0  0  0  0
 10 11  2  0  0  0  0
 10  9  1  0  0  0  0
 11 12  1  0  0  0  0
 12 13  1  0  0  0  0
 12  5  2  0  0  0  0
 13 29  1  0  0  0  0
 14 28  1  0  0  0  0
 14 13  2  0  0  0  0
 15 14  1  0  0  0  0
 16 15  2  0  0  0  0
 16 11  1  0  0  0  0
 17 16  1  0  0  0  0
 18 19  1  0  0  0  0
 18 15  1  0  0  0  0
 18 27  1  0  0  0  0
 19 24  1  0  0  0  0
 20 21  1  0  0  0  0
 20 19  1  0  0  0  0
 20 23  1  0  0  0  0
 22 20  1  0  0  0  0
 25 19  1  0  0  0  0
 26 18  1  0  0  0  0
 30 10  1  0  0  0  0
 31  9  1  0  0  0  0
 34 35  1  0  0  0  0
 34 39  1  0  0  0  0
 35 36  1  0  0  0  0
 35 37  1  0  0  0  0
 38 35  1  0  0  0  0
 40 34  1  0  0  0  0
 42  1  1  0  0  0  0
M  END
