LIG_h.pdb
 OpenBabel08172101563D

 43 44  0  0  0  0  0  0  0  0999 V2000
    0.0000    0.0000    0.0000 C   0  0  0  0  0  0  0  0  0  0  0  0
   -0.6480    1.3710    0.0000 C   0  0  0  0  0  0  0  0  0  0  0  0
   -1.9890    1.4660    0.0020 C   0  0  0  0  0  0  0  0  0  0  0  0
   -2.6180    2.6520    0.0020 C   0  0  0  0  0  0  0  0  0  0  0  0
   -1.9440    3.8160    0.0000 C   0  0  0  0  0  0  0  0  0  0  0  0
   -0.6000    3.7070   -0.0010 C   0  0  0  0  0  0  0  0  0  0  0  0
    0.0380    2.5260   -0.0010 C   0  0  0  0  0  0  0  0  0  0  0  0
    1.1390    2.5310   -0.0020 H   0  0  0  0  0  0  0  0  0  0  0  0
    0.0170    4.6220   -0.0020 H   0  0  0  0  0  0  0  0  0  0  0  0
   -2.5090    5.2300   -0.0000 C   0  0  0  0  0  0  0  0  0  0  0  0
   -3.9520    5.7220    0.0000 C   0  0  0  0  0  0  0  0  0  0  0  0
   -5.0720    4.9800   -0.0010 C   0  0  0  0  0  0  0  0  0  0  0  0
   -6.2900    5.5440   -0.0010 C   0  0  0  0  0  0  0  0  0  0  0  0
   -6.4170    6.8770    0.0000 C   0  0  0  0  0  0  0  0  0  0  0  0
   -5.3280    7.6650    0.0010 C   0  0  0  0  0  0  0  0  0  0  0  0
   -4.1260    7.0620    0.0010 C   0  0  0  0  0  0  0  0  0  0  0  0
   -3.2210    7.6890    0.0010 H   0  0  0  0  0  0  0  0  0  0  0  0
   -5.5180    9.1710    0.0010 C   0  0  0  0  0  0  0  0  0  0  0  0
   -4.2540   10.0450   -0.0060 C   0  0  0  0  0  0  0  0  0  0  0  0
   -4.6010   11.5420   -0.0070 C   0  0  0  0  0  0  0  0  0  0  0  0
   -3.6780   12.1660   -0.0130 H   0  0  0  0  0  0  0  0  0  0  0  0
   -5.2000   11.8160   -0.9060 H   0  0  0  0  0  0  0  0  0  0  0  0
   -5.1910   11.8200    0.8970 H   0  0  0  0  0  0  0  0  0  0  0  0
   -3.6430    9.8240   -0.9130 H   0  0  0  0  0  0  0  0  0  0  0  0
   -3.6340    9.8280    0.8970 H   0  0  0  0  0  0  0  0  0  0  0  0
   -6.1300    9.4340   -0.8940 H   0  0  0  0  0  0  0  0  0  0  0  0
   -6.1210    9.4340    0.9030 H   0  0  0  0  0  0  0  0  0  0  0  0
   -7.4250    7.3260    0.0000 H   0  0  0  0  0  0  0  0  0  0  0  0
   -7.1940    4.9100   -0.0020 H   0  0  0  0  0  0  0  0  0  0  0  0
   -5.0590    3.8870   -0.0020 H   0  0  0  0  0  0  0  0  0  0  0  0
   -2.0520    5.7090    0.8980 H   0  0  0  0  0  0  0  0  0  0  0  0
   -2.0520    5.7090   -0.8990 H   0  0  0  0  0  0  0  0  0  0  0  0
   -3.7090    2.6050    0.0030 H   0  0  0  0  0  0  0  0  0  0  0  0
   -2.5910    0.5400    0.0030 H   0  0  0  0  0  0  0  0  0  0  0  0
    1.5360   -0.0490   -0.0000 C   0  0  0  0  0  0  0  0  0  0  0  0
    2.0560   -1.4940   -0.0000 C   0  0  0  0  0  0  0  0  0  0  0  0
    3.1700   -1.5190   -0.0000 H   0  0  0  0  0  0  0  0  0  0  0  0
    1.7060   -2.0490    0.9010 H   0  0  0  0  0  0  0  0  0  0  0  0
    1.7060   -2.0490   -0.9010 H   0  0  0  0  0  0  0  0  0  0  0  0
    1.9340    0.4710    0.9050 H   0  0  0  0  0  0  0  0  0  0  0  0
    1.9340    0.4700   -0.9050 H   0  0  0  0  0  0  0  0  0  0  0  0
   -0.3690   -0.5490    0.8990 H   0  0  0  0  0  0  0  0  0  0  0  0
   -0.3690   -0.5480   -0.8990 H   0  0  0  0  0  0  0  0  0  0  0  0
  1 42  1  0  0  0  0
  2  1  1  0  0  0  0
  2  3  1  0  0  0  0
  3 34  1  0  0  0  0
  4  3  2  0  0  0  0
  4 33  1  0  0  0  0
  5 10  1  0  0  0  0
  5  4  1  0  0  0  0
  6  5  2  0  0  0  0
  7  6  1  0  0  0  0
  7  2  2  0  0  0  0
  8  7  1  0  0  0  0
  9  6  1  0  0  0  0
 10 11  1  0  0  0  0
 10 31  1  0  0  0  0
 11 16  1  0  0  0  0
 12 11  2  0  0  0  0
 13 12  1  0  0  0  0
 13 14  2  0  0  0  0
 14 15  1  0  0  0  0
 16 15  2  0  0  0  0
 17 16  1  0  0  0  0
 18 15  1  0  0  0  0
 18 27  1  0  0  0  0
 19 18  1  0  0  0  0
 19 25  1  0  0  0  0
 20 19  1  0  0  0  0
 20 23  1  0  0  0  0
 21 20  1  0  0  0  0
 22 20  1  0  0  0  0
 24 19  1  0  0  0  0
 26 18  1  0  0  0  0
 28 14  1  0  0  0  0
 29 13  1  0  0  0  0
 30 12  1  0  0  0  0
 32 10  1  0  0  0  0
 35  1  1  0  0  0  0
 35 40  1  0  0  0  0
 36 35  1  0  0  0  0
 36 38  1  0  0  0  0
 37 36  1  0  0  0  0
 39 36  1  0  0  0  0
 41 35  1  0  0  0  0
 43  1  1  0  0  0  0
M  END
