LIG_h.pdb
 OpenBabel08172101563D

 30 30  0  0  0  0  0  0  0  0999 V2000
    0.0000    0.0000    0.0000 C   0  0  0  0  0  0  0  0  0  0  0  0
   -0.8190   -1.2850    0.0000 C   0  0  0  0  0  0  0  0  0  0  0  0
   -0.2120   -2.4880    0.0000 C   0  0  0  0  0  0  0  0  0  0  0  0
   -0.9080   -3.6340    0.0000 C   0  0  0  0  0  0  0  0  0  0  0  0
   -2.2450   -3.5880    0.0000 C   0  0  0  0  0  0  0  0  0  0  0  0
   -2.8610   -2.3980    0.0000 C   0  0  0  0  0  0  0  0  0  0  0  0
   -2.1740   -1.2390    0.0000 C   0  0  0  0  0  0  0  0  0  0  0  0
   -2.9020    0.1000    0.0000 C   0  0  0  0  0  0  0  0  0  0  0  0
   -4.4410    0.0930    0.0000 C   0  0  0  0  0  0  0  0  0  0  0  0
   -5.0340    1.5150    0.0000 C   0  0  0  0  0  0  0  0  0  0  0  0
   -4.2470    2.3030    0.0010 H   0  0  0  0  0  0  0  0  0  0  0  0
   -5.6710    1.6910   -0.8970 H   0  0  0  0  0  0  0  0  0  0  0  0
   -5.6720    1.6910    0.8970 H   0  0  0  0  0  0  0  0  0  0  0  0
   -4.8140   -0.4490   -0.9010 H   0  0  0  0  0  0  0  0  0  0  0  0
   -4.8140   -0.4490    0.9020 H   0  0  0  0  0  0  0  0  0  0  0  0
   -2.5790    0.6670    0.9050 H   0  0  0  0  0  0  0  0  0  0  0  0
   -2.5790    0.6670   -0.9040 H   0  0  0  0  0  0  0  0  0  0  0  0
   -3.9620   -2.4110    0.0000 H   0  0  0  0  0  0  0  0  0  0  0  0
   -2.8320   -4.5240    0.0000 H   0  0  0  0  0  0  0  0  0  0  0  0
   -0.3860   -4.6070    0.0000 H   0  0  0  0  0  0  0  0  0  0  0  0
    0.8850   -2.5760   -0.0000 H   0  0  0  0  0  0  0  0  0  0  0  0
    1.5340   -0.1170    0.0000 C   0  0  0  0  0  0  0  0  0  0  0  0
    2.2070    1.2640    0.0000 C   0  0  0  0  0  0  0  0  0  0  0  0
    3.3180    1.1680    0.0000 H   0  0  0  0  0  0  0  0  0  0  0  0
    1.9200    1.8530   -0.9010 H   0  0  0  0  0  0  0  0  0  0  0  0
    1.9200    1.8530    0.9010 H   0  0  0  0  0  0  0  0  0  0  0  0
    1.8760   -0.6730    0.9060 H   0  0  0  0  0  0  0  0  0  0  0  0
    1.8760   -0.6730   -0.9060 H   0  0  0  0  0  0  0  0  0  0  0  0
   -0.2830    0.5900   -0.9030 H   0  0  0  0  0  0  0  0  0  0  0  0
   -0.2830    0.5900    0.9020 H   0  0  0  0  0  0  0  0  0  0  0  0
  1 30  1  0  0  0  0
  2  3  2  0  0  0  0
  2  1  1  0  0  0  0
  2  7  1  0  0  0  0
  3 21  1  0  0  0  0
  4  3  1  0  0  0  0
  4 20  1  0  0  0  0
  4  5  2  0  0  0  0
  6  5  1  0  0  0  0
  6  7  2  0  0  0  0
  8  7  1  0  0  0  0
  8 16  1  0  0  0  0
  9  8  1  0  0  0  0
  9 15  1  0  0  0  0
 10  9  1  0  0  0  0
 10 11  1  0  0  0  0
 10 13  1  0  0  0  0
 12 10  1  0  0  0  0
 14  9  1  0  0  0  0
 17  8  1  0  0  0  0
 18  6  1  0  0  0  0
 19  5  1  0  0  0  0
 22  1  1  0  0  0  0
 22 27  1  0  0  0  0
 23 22  1  0  0  0  0
 23 26  1  0  0  0  0
 24 23  1  0  0  0  0
 25 23  1  0  0  0  0
 28 22  1  0  0  0  0
 29  1  1  0  0  0  0
M  END
