LIG_h.pdb
 OpenBabel08172101563D

 42 44  0  0  0  0  0  0  0  0999 V2000
    0.0000    0.0000    0.0000 C   0  0  0  0  0  0  0  0  0  0  0  0
   -0.6760    1.3590   -0.0070 C   0  0  0  0  0  0  0  0  0  0  0  0
   -2.0200    1.4130   -0.0100 C   0  0  0  0  0  0  0  0  0  0  0  0
   -2.6720    2.5850   -0.0160 C   0  0  0  0  0  0  0  0  0  0  0  0
   -1.9910    3.7440   -0.0190 C   0  0  0  0  0  0  0  0  0  0  0  0
   -0.6450    3.7120   -0.0150 C   0  0  0  0  0  0  0  0  0  0  0  0
   -0.0080    2.5260   -0.0090 C   0  0  0  0  0  0  0  0  0  0  0  0
    1.0940    2.5170   -0.0060 H   0  0  0  0  0  0  0  0  0  0  0  0
    0.0370    4.8720   -0.0180 C   0  0  0  0  0  0  0  0  0  0  0  0
   -0.5950    6.0590   -0.0240 C   0  0  0  0  0  0  0  0  0  0  0  0
   -1.9410    6.0850   -0.0270 C   0  0  0  0  0  0  0  0  0  0  0  0
   -2.6270    4.9290   -0.0250 C   0  0  0  0  0  0  0  0  0  0  0  0
   -3.7310    4.9520   -0.0270 H   0  0  0  0  0  0  0  0  0  0  0  0
   -2.5720    7.2720   -0.0330 C   0  0  0  0  0  0  0  0  0  0  0  0
   -1.8710    8.4150   -0.0360 C   0  0  0  0  0  0  0  0  0  0  0  0
   -0.5260    8.4120   -0.0320 C   0  0  0  0  0  0  0  0  0  0  0  0
    0.0930    7.2170   -0.0260 C   0  0  0  0  0  0  0  0  0  0  0  0
    1.1930    7.1790   -0.0230 H   0  0  0  0  0  0  0  0  0  0  0  0
    0.2080    9.7400   -0.0350 C   0  0  0  0  0  0  0  0  0  0  0  0
    1.7440    9.7010   -0.0370 C   0  0  0  0  0  0  0  0  0  0  0  0
    2.3460   11.1140   -0.0420 C   0  0  0  0  0  0  0  0  0  0  0  0
    3.4600   11.0750   -0.0440 H   0  0  0  0  0  0  0  0  0  0  0  0
    2.0270   11.6850   -0.9450 H   0  0  0  0  0  0  0  0  0  0  0  0
    2.0300   11.6900    0.8580 H   0  0  0  0  0  0  0  0  0  0  0  0
    2.1130    9.1630    0.8690 H   0  0  0  0  0  0  0  0  0  0  0  0
    2.1100    9.1580   -0.9410 H   0  0  0  0  0  0  0  0  0  0  0  0
   -0.1280   10.3090   -0.9350 H   0  0  0  0  0  0  0  0  0  0  0  0
   -0.1260   10.3120    0.8620 H   0  0  0  0  0  0  0  0  0  0  0  0
   -2.4140    9.3760   -0.0400 H   0  0  0  0  0  0  0  0  0  0  0  0
   -3.6750    7.3280   -0.0360 H   0  0  0  0  0  0  0  0  0  0  0  0
    1.1410    4.8480   -0.0150 H   0  0  0  0  0  0  0  0  0  0  0  0
   -3.7760    2.5760   -0.0190 H   0  0  0  0  0  0  0  0  0  0  0  0
   -2.6040    0.4760   -0.0080 H   0  0  0  0  0  0  0  0  0  0  0  0
    1.5370   -0.0260    0.0050 C   0  0  0  0  0  0  0  0  0  0  0  0
    2.0790   -1.4630    0.0120 C   0  0  0  0  0  0  0  0  0  0  0  0
    3.1930   -1.4700    0.0160 H   0  0  0  0  0  0  0  0  0  0  0  0
    1.7350   -2.0190    0.9140 H   0  0  0  0  0  0  0  0  0  0  0  0
    1.7410   -2.0260   -0.8880 H   0  0  0  0  0  0  0  0  0  0  0  0
    1.9240    0.5020    0.9100 H   0  0  0  0  0  0  0  0  0  0  0  0
    1.9300    0.4960   -0.9010 H   0  0  0  0  0  0  0  0  0  0  0  0
   -0.3620   -0.5520    0.8990 H   0  0  0  0  0  0  0  0  0  0  0  0
   -0.3560   -0.5580   -0.8980 H   0  0  0  0  0  0  0  0  0  0  0  0
  1 34  1  0  0  0  0
  1 41  1  0  0  0  0
  2  1  1  0  0  0  0
  3 33  1  0  0  0  0
  3  2  2  0  0  0  0
  4  3  1  0  0  0  0
  5  4  2  0  0  0  0
  5  6  1  0  0  0  0
  6  7  2  0  0  0  0
  7  2  1  0  0  0  0
  7  8  1  0  0  0  0
  9  6  1  0  0  0  0
  9 31  1  0  0  0  0
 10  9  2  0  0  0  0
 11 12  2  0  0  0  0
 11 10  1  0  0  0  0
 12  5  1  0  0  0  0
 13 12  1  0  0  0  0
 14 11  1  0  0  0  0
 15 14  2  0  0  0  0
 15 16  1  0  0  0  0
 16 17  2  0  0  0  0
 17 10  1  0  0  0  0
 17 18  1  0  0  0  0
 19 16  1  0  0  0  0
 19 28  1  0  0  0  0
 20 19  1  0  0  0  0
 20 25  1  0  0  0  0
 21 20  1  0  0  0  0
 21 24  1  0  0  0  0
 22 21  1  0  0  0  0
 23 21  1  0  0  0  0
 26 20  1  0  0  0  0
 27 19  1  0  0  0  0
 29 15  1  0  0  0  0
 30 14  1  0  0  0  0
 32  4  1  0  0  0  0
 34 35  1  0  0  0  0
 34 39  1  0  0  0  0
 35 36  1  0  0  0  0
 35 37  1  0  0  0  0
 38 35  1  0  0  0  0
 40 34  1  0  0  0  0
 42  1  1  0  0  0  0
M  END
